Circuit: * C:\Users\Valéry\Documents\GitHub\LightModulator\Alimentation.asc

Direct Newton iteration for .op point succeeded.

Date: Mon Dec 02 14:03:27 2019
Total elapsed time: 0.090 seconds.

tnom = 27
temp = 27
method = modified trap
totiter = 5369
traniter = 5348
tranpoints = 1961
accept = 1623
rejected = 338
matrix size = 10
fillins = 7
solver = Normal
Matrix Compiler1: 752 bytes object code size  0.2/0.2/[0.1]
Matrix Compiler2: off  [0.1]/0.2/0.1

