Circuit: * C:\Users\Valéry\Documents\GitHub\LightModulator\Draft1.asc

.OP point found by inspection.

Date: Tue Dec 24 13:16:30 2019
Total elapsed time: 0.060 seconds.

tnom = 27
temp = 27
method = trap
totiter = 339
traniter = 0
tranpoints = 0
accept = 0
rejected = 0
matrix size = 22
fillins = 0
solver = Normal
Matrix Compiler1: 1.15 KB object code size  0.8/0.4/[0.3]
Matrix Compiler2: 1.63 KB object code size  0.3/0.4/[0.3]

